37

C       -4.1289478314      3.5722727770     -0.0727396346                 
C       -2.8296114130      2.7602479469     -0.0182829161                 
C       -1.5334477699      3.5420498449     -0.0137686946                 
H       -2.8081038209      2.0822554386     -0.8815532502                 
H       -2.8460129535      2.1372338951      0.8855492295                 
C       -1.4674785763      4.9414116387     -0.0090860570                 
C       -0.3279001735      2.8197807098     -0.0071290406                 
C        0.9045543032      3.4761098832      0.0007163365                 
C        0.9515488760      4.8668389903      0.0032569487                 
C       -0.2333513033      5.5984837486     -0.0013152045                 
H       -2.3686214887      5.5482528364     -0.0112360799                 
H       -0.3448540463      1.7316867441     -0.0079700486                 
H        1.8261875946      2.9003696177      0.0051978804                 
H        1.9090961259      5.3802281735      0.0093937286                 
H       -0.1992592430      6.6848958691      0.0015943364                 
C       -5.3571397453      2.6574831932     -0.0860176406                 
H       -4.1383152270      4.2022006666     -0.9708996607                 
H       -4.1869009974      4.2403156439      0.7955104775                 
C       -6.6541661884      3.4707877089     -0.1171161258                 
H       -5.3472381677      2.0165748847      0.8039443539                 
H       -5.3150978209      1.9977828033     -0.9611766342                 
C       -7.8863256512      2.5582510804     -0.1212289890                 
H       -6.6597082036      4.1081874702     -1.0100301606                 
H       -6.6838005663      4.1327135266      0.7572148529                 
C       -9.2391988609      3.2374723199     -0.1281103842                 
H       -7.8428374855      1.9117449429      0.7650836682                 
H       -7.8340355017      1.9066690279     -1.0032818979                 
C      -10.3858010352      2.4249879463     -0.1233279832                 
C      -11.6649649312      2.9850906657     -0.1253824553                 
C       -9.4124115345      4.6277338807     -0.1369107045                 
C      -10.6931293590      5.1883826976     -0.1385700818                 
C      -11.8184054828      4.3682106691     -0.1324883467                 
H      -10.8101027506      6.2690258408     -0.1441705289                 
H      -12.8124377562      4.8068143889     -0.1332625240                 
H      -10.2856599649      1.3413703874     -0.1170092199                 
H      -12.5398967119      2.3406270076     -0.1208611265                 
H       -8.5605554216      5.3019446752     -0.1417587666                 
