34

C       -4.0232155677      3.5760217802     -0.0674734947                 
C       -2.6960258053      2.8066063302     -0.0046740022                 
C       -1.4063894112      3.5898925273     -0.0046139442                 
H       -2.6598953901      2.1211356269     -0.8622071369                 
H       -2.7023078800      2.1876124204      0.9025653910                 
C       -1.3357092718      4.9861570774     -0.0023786570                 
C       -0.2051692637      2.8578005437      0.0002752551                 
C        1.0313624756      3.5028559922      0.0034330946                 
C        1.0860846490      4.8921875677      0.0031241888                 
C       -0.0952767481      5.6328234166      0.0005864499                 
H       -2.2356084322      5.5950088632     -0.0028931445                 
H       -0.2318388454      1.7698195258      0.0013840820                 
H        1.9476834156      2.9185215129      0.0063724031                 
H        2.0476119315      5.3982573321      0.0055082480                 
H       -0.0509667513      6.7185716933      0.0013077443                 
C       -5.1767927039      2.5685244188     -0.0981173256                 
H       -4.0573931589      4.2069420061     -0.9636780859                 
H       -4.1246968453      4.2334442833      0.8042171882                 
C       -6.5629284324      3.2162687224     -0.1488349150                 
H       -5.1075506293      1.9305548881      0.7922744748                 
H       -5.0476150760      1.9202216314     -0.9742672594                 
C       -7.7270829877      2.2432715308     -0.2008920620                 
H       -6.6198615856      3.8635965689     -1.0332400308                 
H       -6.6895730888      3.8533833255      0.7357532693                 
C       -7.5698217674      0.8485961248     -0.1925535403                 
C       -9.0311489459      2.7598706643     -0.2613027497                 
C       -8.6768611727     -0.0017651901     -0.2454735518                 
C       -9.9614384881      0.5280130965     -0.3063814329                 
C      -10.1390258211      1.9090193207     -0.3137369654                 
H       -8.5309412913     -1.0788626845     -0.2392319980                 
H      -10.8211754683     -0.1348871503     -0.3478923207                 
H      -11.1417226628      2.3252916034     -0.3608310648                 
H       -9.1927581359      3.8357764282     -0.2686273857                 
H       -6.5860469785      0.3901209235     -0.1456665951                 
