21

C       -7.9067719624      1.9150056554      0.0078903757                 
C       -6.7143179098      2.8717053873     -0.0286044262                 
C       -5.3865830417      2.1086249088      0.0203704463                 
H       -6.7787008238      3.5593608777      0.8225980465                 
H       -6.7594011781      3.4780853755     -0.9412794222                 
C       -4.1674392947      3.0266622981     -0.1226352978                 
H       -5.3681971131      1.3556624380     -0.7771034748                 
H       -5.3315364180      1.5741021909      0.9773233744                 
C       -2.8726313680      2.2272292390     -0.0693583854                 
H       -2.7694921303      1.7111527255      0.8918233487                 
H       -2.0085560808      2.8944665761     -0.1602074912                 
H       -2.8269020434      1.4860880785     -0.8728643982                 
O       -4.1293406631      3.9761812459      0.9381337729                 
H       -4.2111939346      3.5751069974     -1.0705374798                 
H       -4.8376443703      4.6232156628      0.7806983640                 
C       -9.2247857471      2.6712974105      0.0612616492                 
H       -7.8346469595      1.2594153460      0.8834351169                 
H       -7.8943863762      1.2729229727     -0.8805700675                 
H       -9.2856590410      3.2866715287      0.9647844302                 
H      -10.0646594227      1.9696504876      0.0724747690                 
H       -9.3387093823      3.3258239785     -0.8085992874                 
