18

C       -7.8677248801      1.7622113683     -0.0779447063                 
C       -6.7218006819      2.7624364503     -0.0681947070                 
H       -7.8268136465      1.1296881445     -0.9704569467                 
H       -8.8284238482      2.2866258230     -0.0777635897                 
H       -7.8332016145      1.1150846792      0.8043099543                 
C       -5.3647138164      2.0570264918     -0.0008911544                 
H       -6.8429644312      3.4261112477      0.7953642593                 
H       -6.7784676140      3.3838476461     -0.9691149740                 
C       -4.1821942252      3.0235295072     -0.1304224924                 
H       -5.3028193481      1.3043416321     -0.7966014813                 
H       -5.3006295174      1.5252823004      0.9570541892                 
C       -2.8570814413      2.2817300038     -0.0205760374                 
H       -2.7592749489      1.7966664272      0.9572488192                 
H       -2.0193337947      2.9823020868     -0.1069550794                 
H       -2.7581712086      1.5216455037     -0.8012420631                 
O       -4.2166117002      3.9998818961      0.9059604730                 
H       -4.2214073322      3.5466157803     -1.0928445483                 
H       -4.9415500292      4.6148674606      0.7070392879                 
