28

C       -7.5293879388     -0.4250503886      0.2707683628                 
C       -6.3456436425      0.3926855386      0.7343318154                 
H       -8.4219423358     -0.1469327735      0.8363321527                 
H       -7.3206527616     -1.4864601052      0.4287030091                 
H       -7.7142954526     -0.2375446046     -0.7906252859                 
O       -6.4268542893      1.1448448070      1.6980807125                 
C       -5.0672614929      0.1824509845     -0.0587839404                 
C       -3.8210514862      1.0084269772      0.3588110190                 
H       -5.2926257774      0.3545787291     -1.1178606460                 
H       -4.8390308705     -0.8860646951      0.0480355840                 
C       -2.6288775468      0.3871692443     -0.4231279912                 
C       -4.0325780812      2.5605796484      0.2512798304                 
H       -3.6358430131      0.8016690981      1.4231285736                 
C       -4.9771599859      3.0112212096     -0.8694690951                 
H       -4.6981879362      2.5751693128     -1.8324733032                 
H       -4.9657173658      4.1022279236     -0.9768693507                 
H       -6.0131531734      2.7386444778     -0.6461526082                 
C       -2.7552938229      3.3976526271      0.1675234534                 
H       -4.5151258158      2.8649093240      1.1910408452                 
H       -2.9854826066      4.4634719724      0.2814766589                 
H       -2.2693012400      3.2842233269     -0.8068068427                 
H       -2.0526913020      3.1430074331      0.9653496292                 
C       -1.2214510253      0.7609794770      0.0199131207                 
H       -2.7413155399      0.5721226111     -1.4973498965                 
H       -2.6877689816     -0.7033891513     -0.2957875676                 
H       -0.8599681742      1.6533058188     -0.4962078865                 
H       -0.5242814515     -0.0424218710     -0.2437939315                 
H       -1.1578242617      0.9158440597      1.1005132024                 
