26

N       -6.8573611831     -0.1921742836      0.1101513578                 
N       -5.7702875027      0.6126582732      0.0491029254                 
H       -7.7058149579      0.2396670156      0.4644502962                 
H       -6.7274455107     -1.1866746712      0.2412821753                 
N       -5.9702996884      1.9080112525      0.1711889943                 
H       -5.1307566510      2.4869069409      0.0839101824                 
N       -4.5361401870      0.0491628096     -0.1429350577                 
C       -3.2927315680      0.7834104781     -0.0694648950                 
H       -4.5289582194     -0.9562651262     -0.2796850090                 
C       -2.0754084752     -0.1442817371     -0.1189344107                 
H       -3.2863270715      1.3455246252      0.8715191494                 
H       -3.2627280071      1.4899334357     -0.9069556136                 
C       -0.7886906875      0.6688749617      0.0366756264                 
H       -2.0658715641     -0.6915487396     -1.0693033219                 
H       -2.1506283446     -0.8913068528      0.6802245226                 
C        0.5062771908     -0.1301993447     -0.1587736970                 
H       -0.7824039433      1.1543814211      1.0218857084                 
H       -0.8055445622      1.4845411987     -0.6988681340                 
C        1.7179305830      0.8138811525     -0.0292005454                 
N        0.6684947290     -1.2387383254      0.8145105686                 
H        0.5467941463     -0.5535371473     -1.1685658760                 
H        0.3251909796     -0.9434837572      1.7330576455                 
H        0.0843230128     -2.0292167076      0.5372365518                 
O        1.7366334972      1.9801804911     -0.3914861326                 
O        2.7799669061      0.1821559068      0.5282678597                 
H        2.4777722058     -0.7286005852      0.7651080786                 
