50

C       -3.0799603504      2.4694703113      0.2756442880
C       -3.1051731231      1.1106480745      0.0310930259
C       -1.9024689443      0.4401853009     -0.1969161241
C       -1.8448428616      3.1320872093      0.2952865911
C       -0.6746335997      1.0910336684     -0.2136898807
C       -0.6009979289      2.4906080885      0.0104310095
H       -4.0256244740      0.5375137377      0.0267395253
H       -1.9248780131     -0.6342945260     -0.3679925951
H       -1.8923969595      4.1804655712      0.5638172977
O       -4.1645242110      3.2666851097      0.5154652785
C       -5.4479150185      2.6865391822      0.3151336085
H       -6.1937479107      3.4800996766      0.4251793114
H       -5.6541801917      1.9253417454      1.0740420649
H       -5.5494524666      2.2758059261     -0.6952643000
C        0.7078715891      3.1018433841     -0.0636702374
C        1.8046814640      2.2473271447     -0.2668096791
C        1.6016756078      0.8951280782     -0.4484588194
N        0.3918373765      0.3155066574     -0.4411568350
H        2.8245034990      2.6163332701     -0.2761011510
H        2.4377073782      0.2197932068     -0.6074461295
C        1.0329128057      4.5936071255      0.1351938751
C        1.9418076130      5.2914376500     -0.9603512825
C        1.8668683860      6.8404273412     -0.8223916638
N        3.3735474439      4.8793528054     -1.1079209406
H        1.4456205440      5.0406833759     -1.9111024326
C        3.2096882465      7.4720704050     -1.2167018747
H        1.6271494715      7.1359277223      0.2074020208
H        1.0680060485      7.2286813334     -1.4653218774
C        4.2410406435      5.5000330027     -0.0702084435
C        4.2262094109      7.0501337292     -0.1273025155
H        5.2485341744      5.0870712169     -0.1754586520
H        3.9069555259      5.1661270577      0.9197824307
O       -0.1615094654      5.3818954985      0.1906674819
H        1.5077928100      4.6947621563      1.1181401067
H       -0.5681189135      5.3224264958     -0.6929367697
C        3.8493386670      5.3703103235     -2.4268971421
C        3.6275815873      6.8841927195     -2.5726312138
H        3.3316198503      4.8373560325     -3.2342613970
H        4.9114883565      5.1277617077     -2.5559601797
H        2.8400829972      7.0761628967     -3.3120362910
H        4.5397307734      7.3632521234     -2.9439271183
H        3.1100709779      8.5617581419     -1.2673416361
C        5.5630242781      7.8168118132     -0.2823380434
H        3.8141085724      7.3882079530      0.8354709112
C        6.8304918828      7.0199555755     -0.5303359612
H        5.7205070227      8.3998798868      0.6353672917
H        5.4748418193      8.5711194044     -1.0746905509
H        7.0599694359      6.3638262465      0.3142489642
H        7.6776701560      7.7057557368     -0.6472598937
H        6.7607948489      6.4254389458     -1.4449054174
