20

C       -5.6216379218      2.9032396659      0.0055421277                 
C       -4.4060273011      1.9845607934     -0.1656219218                 
C       -3.0842414999      2.7757129199     -0.0974543287                 
O       -2.9121297564      3.9216562658     -0.4776282925                 
O       -2.0889793705      2.0013713329      0.4140993505                 
H       -2.5121037058      1.1422092671      0.6631102187                 
N       -4.3400654579      0.8938416560      0.8490064499                 
H       -4.4259907666      1.5186171323     -1.1580878714                 
H       -5.1493801709      0.2803395119      0.7292370590                 
H       -4.4678819541      1.3116773540      1.7779465638                 
C       -6.9400656020      2.1638937884     -0.2261639291                 
H       -5.5267632657      3.7300107144     -0.7109465145                 
H       -5.6159856082      3.3605507105      1.0041370994                 
S       -8.2926403881      3.3435609752     -0.5258639510                 
H       -7.1930854084      1.5558768526      0.6484571078                 
H       -6.8577070881      1.5056632186     -1.0969297041                 
C       -9.6132518393      2.1623349992     -0.8947059218                 
H      -10.4819491019      2.7012079044     -1.2822643153                 
H       -9.9071360551      1.6340643772      0.0156087334                 
H       -9.2898677065      1.4412390865     -1.6503810115                 
