14

C       -5.6327260020      2.9096615584      0.0335456848                 
C       -4.4017837869      2.0141704823     -0.1393829835                 
C       -3.1005396000      2.7958761896      0.0426637534                 
O       -6.8197634255      2.1082481234      0.0478279884                 
H       -5.7093946141      3.6275646179     -0.7912245323                 
H       -5.6003848635      3.4740262719      0.9705116244                 
H       -6.8271773002      1.5753104700     -0.7677255390                 
O       -2.9967828499      4.0062729063      0.0944279469                 
O       -2.0389553535      1.9494459552      0.1434909192                 
H       -2.3657737955      1.0209519287      0.1092538901                 
N       -4.4018591730      0.8429536222      0.7869329696                 
H       -4.4086159661      1.6115334461     -1.1588795373                 
H       -5.3814302597      0.7173587782      1.0830878702                 
H       -3.9429402299      1.1116152882      1.6640141711                 
