17

C       -5.5951406529     -1.6338693138     -0.3693639402                 
C       -4.3470301102     -0.8479499796      0.0390158739                 
H       -6.3935800556     -1.5543339594      0.3757366508                 
H       -5.3862744297     -2.6979888141     -0.5223864473                 
H       -5.9817137532     -1.2566565652     -1.3223052562                 
C       -3.0515502719     -1.6668882273     -0.1310219592                 
C       -1.8070104674     -0.7642585253     -0.0517056196                 
O       -4.4902241739     -0.4799641124      1.4174197823                 
H       -4.2948297042      0.0757498344     -0.5497664072                 
H       -4.9883634137      0.3590754003      1.4303845160                 
O       -0.7267400115     -1.4833619753      0.3688399543                 
H       -1.0692467845     -2.3828681490      0.6013620535                 
O       -1.7468942368      0.4108341569     -0.3635941012                 
N       -2.8891246400     -2.7460611739      0.8996533638                 
H       -3.0265797056     -2.1281930921     -1.1250931593                 
H       -3.7536045139     -3.2953097518      0.9055812915                 
H       -2.9488928308     -2.2594975266      1.8083001954                 
