27

C       -1.4457538044      2.6060302213     -0.0687028530                 
C       -1.3380024969      1.2169390428     -0.1888258822                 
C       -0.0512795687      0.6703938885     -0.2709973284                 
C       -0.3117850044      3.4132432221     -0.0340847400                 
C        0.9661243332      2.8479776926     -0.1014512589                 
C        1.1034459452      1.4486868732     -0.2156997398                 
N        0.3529068852     -0.6353774580     -0.4097711379                 
C        2.2339307199      0.5641062599     -0.2756031264                 
C        1.7218125547     -0.7086565077     -0.4432638868                 
H       -0.2758166632     -1.4237971767     -0.4771164168                 
C        3.6636716472      1.0190092183     -0.1610809875                 
C        4.7583787319     -0.0621916047     -0.1203536855                 
H        3.7401115514      1.6528255751      0.7321169324                 
H        3.8689332716      1.6753308453     -1.0194927947                 
C        6.1251613164      0.6232639022      0.0515208292                 
H       -2.4305372644      3.0630742748     -0.0033135753                 
H       -2.2246688589      0.5922905976     -0.2163351407                 
H       -0.4163293822      4.4920279855      0.0509364715                 
H        1.8440987989      3.4866263902     -0.0681774582                 
H        2.2056566682     -1.6703530570     -0.5557459878                 
O        6.3042472747      1.7114537646      0.5879268520                 
O        7.1552692177     -0.1537862193     -0.3595112984                 
H        6.8439159462     -1.0377594379     -0.6417164430                 
N        4.6326227098     -1.0970514149      0.9360002932                 
H        4.7595422812     -0.5716464540     -1.0921005827                 
H        3.6767932167     -1.0604008194      1.3024041050                 
H        5.2058402290     -0.8310074245      1.7417094182                 
