13

C       -2.6948742153      2.2243008673      0.0452564915
C       -1.4993051744      1.3031169763     -0.1785847641
H       -3.6280184100      1.7219906418     -0.2331473123
H       -2.6070051434      3.1350079537     -0.5562052326
H       -2.7908514797      2.5250627660      1.0950458989
C       -0.1200721804      1.9931452401     -0.0897971600
N       -1.5610511393      0.1658690929      0.7521941558
H       -1.5695669295      0.9209544976     -1.2044903865
H       -2.4434021685     -0.3306589211      0.6393774949
H       -1.5096253201      0.4749164341      1.7201042454
O        0.8752451593      1.5873037030     -0.6719464854
O       -0.0542068087      3.0670527531      0.7325960297
H       -0.8780199580      3.2968145271      1.1933813032
