13

C       -2.7997713261      2.1157868021      0.1067488544
C       -1.5187601932      1.3450127579     -0.1696083415
H       -3.6816828098      1.5058449410     -0.116615284
H       -2.8506735567      3.0168018120     -0.5143491344
H       -2.8596022758      2.4368873459      1.1526593759
C       -0.2712883077      2.1936884387      0.1291402958
N       -1.4563049159      0.1055408083      0.6589551514
H       -1.4645115071      1.0548856553     -1.2243847908
H       -2.2156512109     -0.5103742378      0.3531543202
H       -1.7146103236      0.3533641274      1.6211535592
O       -0.1435177470      3.3834895702     -0.1084690258
O        0.7119814709      1.4291061126      0.6765341591
H        0.3272106754      0.5213538224      0.7680401201
