 xtb: 6.6.0 (2ccbbd7)
          05032308443D

 24 24  0     0  0            999 V2000
    1.2116    2.5522   -0.4404 C   0  0  0  0  0  0  0  0  0  0  0  0
   -0.0436    2.7201    0.1284 C   0  0  0  0  0  0  0  0  0  0  0  0
   -0.7575    1.6028    0.5534 C   0  0  0  0  0  0  0  0  0  0  0  0
    1.7462    1.2822   -0.5737 C   0  0  0  0  0  0  0  0  0  0  0  0
    1.0449    0.1629   -0.1444 C   0  0  0  0  0  0  0  0  0  0  0  0
   -0.2163    0.3416    0.4161 C   0  0  0  0  0  0  0  0  0  0  0  0
   -0.6081    3.9478    0.2902 O   0  0  0  0  0  0  0  0  0  0  0  0
   -0.0056    4.6331   -0.0223 H   0  0  0  0  0  0  0  0  0  0  0  0
   -0.7744   -0.5207    0.7462 H   0  0  0  0  0  0  0  0  0  0  0  0
    2.7323    1.1704   -1.0048 H   0  0  0  0  0  0  0  0  0  0  0  0
    1.7741    3.4150   -0.7735 H   0  0  0  0  0  0  0  0  0  0  0  0
   -1.7312    1.7476    0.9928 H   0  0  0  0  0  0  0  0  0  0  0  0
    1.6189   -1.2155   -0.3170 C   0  0  0  0  0  0  0  0  0  0  0  0
    1.1762   -1.8505   -1.6512 C   0  0  0  0  0  0  0  0  0  0  0  0
    1.2760   -1.8674    0.4870 H   0  0  0  0  0  0  0  0  0  0  0  0
    2.7108   -1.1703   -0.2938 H   0  0  0  0  0  0  0  0  0  0  0  0
   -0.3104   -2.2650   -1.6050 C   0  0  0  0  0  0  0  0  0  0  0  0
   -0.8468   -2.6901   -0.6210 O   0  0  0  0  0  0  0  0  0  0  0  0
   -0.9190   -2.1440   -2.7788 O   0  0  0  0  0  0  0  0  0  0  0  0
   -0.2748   -1.7497   -3.4066 H   0  0  0  0  0  0  0  0  0  0  0  0
    1.3735   -1.0263   -2.8379 N   0  0  0  0  0  0  0  0  0  0  0  0
    1.7301   -2.7879   -1.7959 H   0  0  0  0  0  0  0  0  0  0  0  0
    1.0669   -0.0729   -2.6435 H   0  0  0  0  0  0  0  0  0  0  0  0
    2.3541   -0.9861   -3.0975 H   0  0  0  0  0  0  0  0  0  0  0  0
  1  2  4  0  0  0  0
  2  3  4  0  0  0  0
  1  4  4  0  0  0  0
  4  5  4  0  0  0  0
  3  6  4  0  0  0  0
  5  6  4  0  0  0  0
  2  7  1  0  0  0  0
  7  8  1  0  0  0  0
  6  9  1  0  0  0  0
  4 10  1  0  0  0  0
  1 11  1  0  0  0  0
  3 12  1  0  0  0  0
  5 13  1  0  0  0  0
 13 14  1  0  0  0  0
 13 15  1  0  0  0  0
 13 16  1  0  0  0  0
 14 17  1  0  0  0  0
 17 18  2  0  0  0  0
 17 19  1  0  0  0  0
 19 20  1  0  0  0  0
 14 21  1  0  0  0  0
 14 22  1  0  0  0  0
 21 23  1  0  0  0  0
 21 24  1  0  0  0  0
M  END
