12

C       -4.581382889113015       2.799487375956464      -0.079210181412752
C       -3.359847398731808       3.379142511602261      -0.421833028324972
C       -4.635366170778727       1.457446954552681       0.297024420089399
C       -3.467814018911212       0.695061520667272       0.330636223855996
C       -2.246278512617689       1.274716638099938      -0.011986620452369
C       -2.192295218102708       2.616757071814584      -0.388221227262906
H       -1.240578302427443       3.068374969671294      -0.655163839504747
H       -3.317788345091302       4.424746570686887      -0.714963094983001
H       -5.491040497257332       3.393473381656529      -0.105397631333335
H       -5.587082952759949       1.005828822580524       0.563967076451533
H       -3.509873446248144      -0.350542505272440       0.623766337597415
H       -1.336620817507296       0.680730755563961       0.014200782611527
