24

C	 1.670367678900000	 2.618292930600000	 0.261413236200000
C	 0.324864949200000	 2.935656676700000	 0.141876665900000
C	-0.582748532700000	 1.994595779900000	-0.321926170100000
C	 2.103806927600000	 1.334747829900000	-0.083302426400000
C	 1.204778672500000	 0.361078336400000	-0.560886230100000
C	-0.144104568100000	 0.715914387400000	-0.679671720000000
O	-0.150479733900000	 4.170318300500000	 0.467579179500000
H	-1.113627419657320	 4.174351685709556	 0.342523231019940
H	-0.889527632100000	 0.026278978300000	-1.054663913200000
H	 3.162173638300000	 1.096480533800000	 0.016512452600000
H	 2.392601113300000	 3.345776737900000	 0.617837638700000
H	-1.633680021300000	 2.256400485900000	-0.410867240000000
C	 1.766937810900000	-1.007341584300000	-0.896472635100000
C	 0.886113688600000	-2.019427177900000	-1.655645292900000
H	 2.121294261500000	-1.465893470500000	 0.037140506900000
H	 2.664573685700000	-0.828531401300000	-1.505879789600000
C	-0.560908398129117	-1.483400131680386	-1.730938085325112
O	-1.333396684689206	-1.629280099420939	-2.664870004154797
O	-0.872436309348118	-0.772148713265250	-0.613388939767253
H	-1.759388437140753	-0.371387387747141	-0.798841712712142
N	 1.315595321937376	-2.305658587441872	-3.063166824097193
H	 0.834702811243835	-2.970330290059824	-1.112809292131960
H	 0.794637682450660	-3.126529837944249	-3.392538903571960
H	 0.991110815774341	-1.544662897352964	-3.664108113464428
