26

C	-3.7133897871	1.6950619608	0.3173518957
C	-2.4962708658	2.6345240708	0.2420000613
C	-4.9565526721	2.3924205163	-0.215569798
H	-5.2099726648	3.2528322319	0.4143396578
H	-5.8205883485	1.719071197	-0.2147748379
H	-4.8083993472	2.7651687292	-1.2348595522
N	-3.409786011	0.4519544747	-0.4549190006
H	-3.8575627765	1.4177192419	1.3669276183
H	-3.2072435174	-0.2948400178	0.2179743481
H	-4.2689794676	0.1396901513	-0.9176011901
O	-2.457194751	3.7760358461	0.6681628871
O	-1.4389273603	2.0221115648	-0.3549303078
H	-1.7862916164	1.1491118392	-0.6669267228
C	-1.258099078489926	1.3115903359886112	-1.590857613539838
C	-0.32502438553109303	0.638626798602822	-2.6136660601067194
C	-2.0754997119761924	2.407969619876355	-2.2583732428884655
H	-1.4173084206596518	3.2043600341000937	-2.624245444231587
H	-2.7804729237663635	2.8624042486930588	-1.5537744019542667
H	-2.63964072566407	2.028926013473829	-3.117391928387649
N	-2.1371588369066727	0.2673084243541741	-0.9820694383118174
H	-0.6340693943251228	1.7366743471301238	-0.7976334530254803
H	-1.7861962566904548	0.0716172830171602	-0.038649500555077654
H	-3.0624720089248267	0.6764654805284827	-0.8202570497696977
O	0.435698521236469	1.2217606842913162	-3.3669564161257073
O	-0.438931607078094	-0.7156707294312099	-2.5661941513348485
H	-1.1795256377982257	-0.8922882308551856	-1.9333758913747756
